Version 4.1
SHEET 1 2468 2640
WIRE -640 -192 -896 -192
WIRE -576 -192 -640 -192
WIRE -432 -192 -512 -192
WIRE 1056 -192 1056 -240
WIRE 1168 -192 1168 -240
WIRE 1280 -192 1280 -240
WIRE 192 -160 192 -240
WIRE -640 -128 -640 -192
WIRE 1056 -128 1056 -192
WIRE 1168 -128 1168 -192
WIRE 1280 -128 1280 -192
WIRE -896 -64 -896 -192
WIRE -896 -64 -1008 -64
WIRE -800 -64 -896 -64
WIRE -432 -64 -432 -192
WIRE -432 -64 -480 -64
WIRE -352 -48 -352 -80
WIRE 1056 16 1056 -48
WIRE 1168 16 1168 -48
WIRE 1280 16 1280 -48
WIRE -896 32 -896 -64
WIRE -800 32 -896 32
WIRE -400 32 -480 32
WIRE 160 32 160 -16
WIRE 160 32 96 32
WIRE 224 32 224 -16
WIRE 288 32 224 32
WIRE -432 48 -432 -64
WIRE -432 128 -432 112
WIRE -432 128 -480 128
WIRE -352 128 -352 48
WIRE -352 128 -432 128
WIRE -272 128 -352 128
WIRE -176 128 -272 128
WIRE -160 128 -176 128
WIRE -64 128 -80 128
WIRE -48 128 -64 128
WIRE 96 128 96 32
WIRE 96 128 32 128
WIRE 160 128 96 128
WIRE 288 128 288 32
WIRE 288 128 240 128
WIRE 352 128 288 128
WIRE 416 128 352 128
WIRE 464 128 416 128
WIRE 592 128 464 128
WIRE -352 144 -352 128
WIRE 352 160 352 128
WIRE -176 192 -176 128
WIRE -144 192 -176 192
WIRE -64 192 -64 128
WIRE -64 192 -96 192
WIRE -144 208 -144 192
WIRE -96 208 -96 192
WIRE 464 208 464 128
WIRE 592 208 592 128
WIRE -848 224 -1232 224
WIRE -800 224 -848 224
WIRE -400 224 -480 224
WIRE 352 240 352 224
WIRE -800 320 -816 320
WIRE -464 320 -480 320
WIRE -352 320 -352 240
WIRE -352 320 -464 320
WIRE -160 352 -160 256
WIRE 352 352 352 320
WIRE 464 352 464 288
WIRE 464 352 352 352
WIRE 592 352 592 288
WIRE 592 352 464 352
WIRE -816 400 -816 320
WIRE -640 400 -640 384
WIRE -640 400 -816 400
WIRE -464 400 -464 320
WIRE -464 400 -640 400
WIRE -640 448 -640 400
WIRE -48 560 -528 560
WIRE 272 560 16 560
WIRE -832 576 -832 560
WIRE -832 576 -864 576
WIRE -864 592 -864 576
WIRE -832 592 -832 576
WIRE -848 608 -848 592
WIRE -704 624 -816 624
WIRE -1120 640 -1136 640
WIRE -960 640 -1024 640
WIRE -960 656 -960 640
WIRE -896 656 -960 656
WIRE -528 656 -528 560
WIRE -528 656 -816 656
WIRE -160 656 -528 656
WIRE 48 656 -80 656
WIRE 272 656 272 560
WIRE 272 656 112 656
WIRE 496 672 496 624
WIRE -1232 688 -1232 224
WIRE -1120 688 -1232 688
WIRE -928 688 -1024 688
WIRE -848 688 -848 672
WIRE -928 720 -928 688
WIRE 272 800 272 656
WIRE 272 800 -112 800
WIRE 496 800 496 752
WIRE 496 800 272 800
WIRE -528 816 -528 656
WIRE -176 816 -528 816
WIRE 496 816 496 800
WIRE -928 832 -928 800
WIRE 144 832 -112 832
WIRE 144 896 144 832
WIRE 496 928 496 896
WIRE 144 1040 144 976
FLAG 464 352 0
FLAG 416 128 Vout
FLAG 272 -48 0
FLAG 112 -48 Vdd
FLAG 272 -80 0
FLAG 112 -80 0
FLAG 192 -240 Il_sns
FLAG 1056 16 0
FLAG 1056 -192 Vin
FLAG 1168 16 0
FLAG 1168 -192 Vdd
FLAG 1280 16 0
FLAG 1280 -192 Vcc
FLAG -640 448 0
FLAG -352 -80 Vin
FLAG -1008 -64 Vcc
FLAG -272 128 SW
FLAG 496 928 0
FLAG 496 624 Vout
FLAG -848 224 PWM
FLAG -832 560 0
FLAG -848 688 Vdd
FLAG 144 1040 0
FLAG -704 624 Il_sns
FLAG -1024 608 0
FLAG -928 832 0
FLAG -80 256 0
FLAG -144 848 0
FLAG -144 784 vdd
SYMBOL ind -64 144 R270
WINDOW 0 32 56 VTop 2
WINDOW 3 5 56 VBottom 2
SYMATTR InstName L1
SYMATTR Value 8.2µ
SYMBOL cap 336 160 R0
SYMATTR InstName C1
SYMATTR Value 260µ
SYMBOL res -64 112 R90
WINDOW 0 0 56 VBottom 2
WINDOW 3 32 56 VTop 2
SYMATTR InstName R1
SYMATTR Value 200m
SYMBOL res 336 224 R0
SYMATTR InstName R2
SYMATTR Value 5m
SYMBOL res 256 112 R90
WINDOW 0 0 56 VBottom 2
WINDOW 3 32 56 VTop 2
SYMATTR InstName R3
SYMATTR Value 10m
SYMBOL OpAmps\\AD8410A 192 -48 R270
SYMATTR InstName U1
SYMBOL res 448 192 R0
SYMATTR InstName R4
SYMATTR Value 3.6810
SYMBOL voltage 1056 -144 R0
WINDOW 123 0 0 Left 0
WINDOW 39 0 0 Left 0
SYMATTR InstName V1
SYMATTR Value PWL(0 0 500u 0 1m {Vin})
SYMBOL voltage 1168 -144 R0
WINDOW 123 0 0 Left 0
WINDOW 39 0 0 Left 0
SYMATTR InstName V2
SYMATTR Value PWL(0 0 500u 0 1m {Vdd})
SYMBOL voltage 1280 -144 R0
WINDOW 123 0 0 Left 0
WINDOW 39 0 0 Left 0
SYMATTR InstName V3
SYMATTR Value PWL(0 0 500u 0 1m {Vcc})
SYMBOL PowerProducts\\LTC7060 -640 128 R0
SYMATTR InstName U2
SYMBOL nmos -400 -48 R0
SYMATTR InstName M1
SYMATTR Value BSC050N04LS
SYMBOL cap -448 48 R0
SYMATTR InstName C2
SYMATTR Value 220n
SYMBOL diode -576 -176 R270
WINDOW 0 32 32 VTop 2
WINDOW 3 0 32 VBottom 2
SYMATTR InstName D1
SYMATTR Value DFLS160
SYMBOL nmos -400 144 R0
SYMATTR InstName M2
SYMATTR Value BSC016N04LS
SYMBOL current 592 208 R0
WINDOW 123 0 0 Left 0
WINDOW 39 0 0 Left 0
SYMATTR InstName I1
SYMATTR Value PULSE(0 10 2.5m 10n 10n 300u)
SYMBOL OpAmps\\AD8031 -144 752 M0
SYMATTR InstName U7
SYMBOL res 480 800 R0
SYMATTR InstName R18
SYMATTR Value {R2}
SYMBOL res 480 656 R0
SYMATTR InstName Rtop
SYMATTR Value {R1}
SYMBOL res -64 640 R90
WINDOW 0 0 56 VBottom 2
WINDOW 3 32 56 VTop 2
SYMATTR InstName R5
SYMATTR Value {Rz}
SYMBOL cap 112 640 R90
WINDOW 0 0 32 VBottom 2
WINDOW 3 32 32 VTop 2
SYMATTR InstName C3
SYMATTR Value {Cz}
SYMBOL cap 16 544 R90
WINDOW 0 0 32 VBottom 2
WINDOW 3 32 32 VTop 2
SYMATTR InstName C4
SYMATTR Value {Cp}
SYMBOL voltage 144 880 R0
WINDOW 123 0 0 Left 0
WINDOW 39 0 0 Left 0
SYMATTR InstName V4
SYMATTR Value PWL(0 0 1m 0 1.1m {Vref})
SYMBOL Digital\\srflop -1072 736 R180
WINDOW 39 -40 28 Left 2
SYMATTR InstName A1
SYMATTR SpiceLine Vhigh={Vdd} Vlow=0
SYMBOL voltage -928 704 R0
WINDOW 123 0 0 Left 0
WINDOW 39 0 0 Left 0
SYMATTR InstName V5
SYMATTR Value PULSE(0 {Vdd} 0 10n 10n 30n {1/Fsw})
SYMBOL e -176 256 M90
SYMATTR InstName E1
SYMATTR Value 1
SYMBOL Comparators\\LT1711 -848 640 R180
SYMATTR InstName U3
TEXT 1048 -328 Left 2 !.param Vcc=12 Vdd=5 Vin=50 Fsw=500k
TEXT 1048 -304 Left 2 !.tran 0 3m 0 100n
TEXT 1056 432 Left 5 !.param Cz={1.2395e-09}\n.param Cp={1.3000e-11}\n.param Rz={100k}\n.param R1={6.1213e+03}\n.PARAM R2 = {1.1660e+03}\n.PARAM Vref = 800m
