Version 4.1
SHEET 1 2468 2640
WIRE -640 -192 -896 -192
WIRE -576 -192 -640 -192
WIRE -432 -192 -512 -192
WIRE 1056 -192 1056 -240
WIRE 1152 -192 1152 -240
WIRE 1248 -192 1248 -240
WIRE -640 -128 -640 -192
WIRE 1056 -128 1056 -192
WIRE 1152 -128 1152 -192
WIRE 1248 -128 1248 -192
WIRE -896 -64 -896 -192
WIRE -896 -64 -1008 -64
WIRE -800 -64 -896 -64
WIRE -432 -64 -432 -192
WIRE -432 -64 -480 -64
WIRE -352 -48 -352 -80
WIRE 1056 16 1056 -48
WIRE 1152 16 1152 -48
WIRE 1248 16 1248 -48
WIRE -896 32 -896 -64
WIRE -800 32 -896 32
WIRE -400 32 -480 32
WIRE -432 48 -432 -64
WIRE -432 128 -432 112
WIRE -432 128 -480 128
WIRE -352 128 -352 48
WIRE -352 128 -432 128
WIRE -272 128 -352 128
WIRE -160 128 -272 128
WIRE -48 128 -80 128
WIRE 144 128 32 128
WIRE 208 128 144 128
WIRE 256 128 208 128
WIRE 384 128 256 128
WIRE 528 128 384 128
WIRE -352 144 -352 128
WIRE 144 160 144 128
WIRE -1104 208 -1280 208
WIRE 256 208 256 128
WIRE 384 208 384 128
WIRE -880 224 -1040 224
WIRE -800 224 -880 224
WIRE -400 224 -480 224
WIRE -1104 240 -1184 240
WIRE 144 240 144 224
WIRE -800 320 -816 320
WIRE -464 320 -480 320
WIRE -352 320 -352 240
WIRE -352 320 -464 320
WIRE -1184 336 -1184 320
WIRE 144 352 144 320
WIRE 256 352 256 288
WIRE 256 352 144 352
WIRE 384 352 384 288
WIRE 384 352 256 352
WIRE -816 400 -816 320
WIRE -640 400 -640 384
WIRE -640 400 -816 400
WIRE -464 400 -464 320
WIRE -464 400 -640 400
WIRE -640 448 -640 400
WIRE -672 640 -880 640
WIRE -416 640 -608 640
WIRE -880 736 -880 640
WIRE -784 736 -880 736
WIRE -608 736 -720 736
WIRE -416 736 -416 640
WIRE -416 736 -528 736
WIRE -336 768 -352 768
WIRE -256 768 -272 768
WIRE -128 768 -176 768
WIRE -416 864 -416 736
WIRE -416 864 -608 864
WIRE -352 864 -352 768
WIRE -352 864 -416 864
WIRE -288 864 -352 864
WIRE -128 864 -128 768
WIRE -128 864 -208 864
WIRE 528 864 528 128
WIRE 528 864 -128 864
WIRE -1280 880 -1280 208
WIRE -880 880 -880 736
WIRE -880 880 -1280 880
WIRE -672 880 -880 880
WIRE -544 896 -608 896
WIRE -352 896 -352 864
WIRE -544 912 -544 896
WIRE -544 1040 -544 992
FLAG 256 352 0
FLAG 208 128 Vout
FLAG 1056 16 0
FLAG 1056 -192 Vin
FLAG 1152 16 0
FLAG 1152 -192 Vdd
FLAG 1248 16 0
FLAG 1248 -192 Vcc
FLAG -640 448 0
FLAG -352 -80 Vin
FLAG -1008 -64 Vcc
FLAG -352 976 0
FLAG -272 128 SW
FLAG -880 224 PWM
FLAG -640 912 0
FLAG -640 848 Vdd
FLAG -1072 192 0
FLAG -1072 256 Vdd
FLAG -1184 336 0
FLAG -544 1040 0
SYMBOL ind -64 144 R270
WINDOW 0 32 56 VTop 2
WINDOW 3 5 56 VBottom 2
SYMATTR InstName L1
SYMATTR Value {Lout}
SYMBOL cap 128 160 R0
SYMATTR InstName C1
SYMATTR Value {C_out_tot}
SYMBOL res -64 112 R90
WINDOW 0 0 56 VBottom 2
WINDOW 3 32 56 VTop 2
SYMATTR InstName R1
SYMATTR Value 0
SYMBOL res 128 224 R0
SYMATTR InstName R2
SYMATTR Value 10m
SYMBOL res 240 192 R0
SYMATTR InstName R4
SYMATTR Value 3.6810
SYMBOL voltage 1056 -144 R0
WINDOW 123 0 0 Left 0
WINDOW 39 0 0 Left 0
SYMATTR InstName V1
SYMATTR Value PWL(0 0 500u 0 1m {Vin})
SYMBOL voltage 1152 -144 R0
WINDOW 123 0 0 Left 0
WINDOW 39 0 0 Left 0
SYMATTR InstName V2
SYMATTR Value PWL(0 0 500u 0 1m {Vdd})
SYMBOL voltage 1248 -144 R0
WINDOW 123 0 0 Left 0
WINDOW 39 0 0 Left 0
SYMATTR InstName V3
SYMATTR Value PWL(0 0 500u 0 1m {Vcc})
SYMBOL PowerProducts\\LTC7060 -640 128 R0
SYMATTR InstName U2
SYMBOL nmos -400 -48 R0
SYMATTR InstName M1
SYMATTR Value BSC050N04LS
SYMBOL cap -448 48 R0
SYMATTR InstName C2
SYMATTR Value 220n
SYMBOL diode -576 -176 R270
WINDOW 0 32 32 VTop 2
WINDOW 3 0 32 VBottom 2
SYMATTR InstName D1
SYMATTR Value DFLS160
SYMBOL nmos -400 144 R0
SYMATTR InstName M2
SYMATTR Value BSC016N04LS
SYMBOL res -512 720 R90
WINDOW 0 0 56 VBottom 2
WINDOW 3 32 56 VTop 2
SYMATTR InstName R5
SYMATTR Value {Rf}
SYMBOL cap -608 624 R90
WINDOW 0 0 32 VBottom 2
WINDOW 3 32 32 VTop 2
SYMATTR InstName C3
SYMATTR Value {Cp}
SYMBOL res -192 848 R90
WINDOW 0 0 56 VBottom 2
WINDOW 3 32 56 VTop 2
SYMATTR InstName R6
SYMATTR Value {R1}
SYMBOL cap -272 752 R90
WINDOW 0 0 32 VBottom 2
WINDOW 3 32 32 VTop 2
SYMATTR InstName C4
SYMATTR Value {Cs}
SYMBOL res -368 880 R0
SYMATTR InstName R8
SYMATTR Value {R2}
SYMBOL current 384 208 R0
WINDOW 123 0 0 Left 0
WINDOW 39 0 0 Left 0
SYMATTR InstName I1
SYMATTR Value PULSE(0 10 2.5m 10n 10n 300u)
SYMBOL OpAmps\\AD8031 -640 816 M0
SYMATTR InstName U8
SYMBOL Comparators\\LT1721 -1072 288 M180
SYMATTR InstName U3
SYMBOL voltage -1184 224 R0
WINDOW 123 0 0 Left 0
WINDOW 39 0 0 Left 0
SYMATTR InstName V6
SYMATTR Value PULSE(0 {Vpk} 0 2u 0 0 2u)
SYMBOL cap -720 720 R90
WINDOW 0 0 32 VBottom 2
WINDOW 3 32 32 VTop 2
SYMATTR InstName C5
SYMATTR Value {Cf}
SYMBOL res -160 752 R90
WINDOW 0 0 56 VBottom 2
WINDOW 3 32 56 VTop 2
SYMATTR InstName R3
SYMATTR Value {Rs}
SYMBOL voltage -544 896 R0
WINDOW 123 0 0 Left 0
WINDOW 39 0 0 Left 0
SYMATTR InstName V4
SYMATTR Value PWL(0 0 500u 0 1m {Vref})
TEXT 1048 -328 Left 2 !.param Vcc=12 Vdd=5 Vin=50 Fsw=500k
TEXT 1048 -304 Left 2 !.tran 0 3m 0 100n
TEXT 1048 96 Left 2 !.PARAM Lout = 8.2u\n.PARAM C_out_tot = 260u\n \n.PARAM Ic = 1m\n.PARAM Csaw = {Ic/Fsw}\n.PARAM kff = 30 \n.PARAM Vpk = {Vin/kff} \n \n.PARAM flc = {1/(2*pi*sqrt(LOUT*C_out_tot))}\n.PARAM fbw = {Fsw/12.5}\n.PARAM Vref = 800m\n.PARAM Vout = 5\n \n.PARAM R2 = 2.49k\n.PARAM R1 = {R2*(Vout/Vref - 1)}\n.PARAM Rf = {fbw * R1 / (kff * flc)}\n.PARAM Cf = {1/(2 * pi * Rf * 0.8 * flc) }\n.PARAM Cp = {1/(2 * pi * Rf * 0.5 * fsw)}\n.PARAM Cs = {1/(2* pi * R1 * 0.8 * flc)}\n.PARAM Rs = {1/(2 * pi * Cs * 0.5 * fsw)}
